ipss.test.plugin.core/testData/adpter/ge/unit/ps_xfr_2bus.epc
title
UNIT PS XFR 2BUS
!
solution parameters
sbase    100.0    system mva base
!
bus data  [    2]             ty  vsched   volt     angle   ar zone  vmax   vmin
       1 "FROM    " 230.00  :  0 1.00000 1.000000   0.00000  1    1 1.0500 0.9500
       2 "TO      " 230.00  :  1 1.00000 1.000000   0.00000  1    1 1.0500 0.9500
branch data  [    0]
transformer data  [    1]                               ck   long_id_    st ty --no---    reg_name          zt         int                           tert               ar zone  tbase   ps_r    ps_x    pt_r    pt_x    ts_r    ts_x
       1 "FROM    " 230.00       2 "TO      " 230.00 "1 " "        " :  1  4   -1      "        " 000.00   0   -1      "        " 000.00   -1      "        " 000.00   1    1  100.0 0.00000 0.10000 0.00000 0.00000 0.00000 0.00000 /
230.00 230.00  30.00    0.0 0.00000 0.00000  100.0    0.0    0.0    0.0 0.000 1.5000 0.5100 1.5000 0.5100 0.00000 1.0000 1.0000 1.0000 1.0000
  0 0.000   0 0.000   0 0.000   0 0.000   0 0.000   0 0.000   0 0.000   0 0.000
generator data  [    1]
       1 "FROM    " 230.00 "1 " "        " :  1       1 "FROM    " 230.00  1.00 1.00  1    1  100.00  200.0   0.0    0.0  100.0 -100.0  100.00 /
 0.0000 0.0000 0.0000
load data  [    1]
       2 "TO      " 230.00 "1 " "        "  :  1   50.000   10.000    0.000    0.000    0.000    0.000  1    1
shunt data  [    0]
area data  [ 1]
    1 "AREA 1                          "       1      0.0      5.0      0.0      0.0
zone data  [   1]
    1 "Zone1                           "    0.000    0.000
end
